Version 4
SHEET 1 880 680
WIRE -1184 -992 -1424 -992
WIRE -960 -992 -1184 -992
WIRE -848 -992 -960 -992
WIRE -608 -992 -848 -992
WIRE -256 -992 -608 -992
WIRE -960 -960 -960 -992
WIRE -608 -944 -608 -992
WIRE -256 -944 -256 -992
WIRE -1424 -928 -1424 -992
WIRE -848 -880 -848 -992
WIRE -1424 -832 -1424 -848
WIRE -960 -832 -960 -880
WIRE -912 -832 -960 -832
WIRE -352 -816 -368 -816
WIRE -256 -816 -256 -864
WIRE -256 -816 -288 -816
WIRE -192 -816 -256 -816
WIRE -112 -816 -128 -816
WIRE -608 -768 -608 -864
WIRE -576 -768 -608 -768
WIRE -496 -768 -512 -768
WIRE -368 -768 -368 -816
WIRE -368 -768 -416 -768
WIRE -960 -736 -960 -832
WIRE -368 -736 -368 -768
WIRE -352 -736 -368 -736
WIRE -256 -736 -256 -816
WIRE -256 -736 -288 -736
WIRE -256 -704 -256 -736
WIRE -1440 -688 -1552 -688
WIRE -1280 -688 -1360 -688
WIRE -1072 -688 -1216 -688
WIRE -1024 -688 -1072 -688
WIRE -848 -656 -848 -784
WIRE -800 -656 -848 -656
WIRE -720 -656 -736 -656
WIRE -608 -656 -608 -768
WIRE -608 -656 -640 -656
WIRE -320 -656 -608 -656
WIRE -1552 -624 -1552 -688
WIRE -960 -624 -960 -640
WIRE -848 -624 -848 -656
WIRE -848 -624 -960 -624
WIRE -1184 -608 -1184 -992
WIRE -1072 -608 -1072 -688
WIRE -608 -496 -608 -656
WIRE -1184 -448 -1184 -528
WIRE -1072 -448 -1072 -528
WIRE -1072 -448 -1184 -448
WIRE -992 -448 -1072 -448
WIRE -848 -448 -848 -624
WIRE -848 -448 -928 -448
WIRE -1552 -416 -1552 -544
WIRE -256 -416 -256 -608
WIRE -144 -416 -256 -416
WIRE -1184 -384 -1184 -448
WIRE -848 -384 -848 -448
WIRE -256 -384 -256 -416
WIRE -144 -368 -144 -416
WIRE -1184 -272 -1184 -304
WIRE -1072 -272 -1184 -272
WIRE -848 -272 -848 -304
WIRE -848 -272 -1072 -272
WIRE -608 -272 -608 -416
WIRE -608 -272 -848 -272
WIRE -256 -272 -256 -304
WIRE -256 -272 -608 -272
WIRE -144 -272 -144 -304
WIRE -144 -272 -256 -272
WIRE -1072 -256 -1072 -272
FLAG -1552 -416 0
FLAG -1424 -832 0
FLAG -1072 -256 0
FLAG -112 -816 Out2
IOPIN -112 -816 Out
SYMBOL voltage -1552 -640 R0
WINDOW 39 -112 95 Left 2
WINDOW 3 -74 122 Left 2
WINDOW 0 -51 -9 Left 2
SYMATTR Value SINE(0 .01V 1000)
SYMATTR InstName V1
SYMATTR Value2 AC 1
SYMBOL voltage -1424 -944 R0
WINDOW 123 0 0 Left 2
WINDOW 39 24 -12 Left 2
SYMATTR InstName V2
SYMATTR Value 9V
SYMBOL res -1200 -400 R0
SYMATTR InstName R1
SYMATTR Value 100K
SYMBOL cap -736 -672 R90
WINDOW 0 0 32 VBottom 2
WINDOW 3 32 32 VTop 2
SYMATTR InstName C2
SYMATTR Value 22µ
SYMBOL res -864 -400 R0
SYMATTR InstName R2
SYMATTR Value 4.7K
SYMBOL cap -928 -464 R90
WINDOW 0 0 32 VBottom 2
WINDOW 3 32 32 VTop 2
SYMATTR InstName C3
SYMATTR Value 47µ
SYMBOL res -1088 -624 R0
SYMATTR InstName R3
SYMATTR Value 47K
SYMBOL res -1200 -624 R0
SYMATTR InstName R4
SYMATTR Value 100K
SYMBOL cap -1216 -704 R90
WINDOW 0 0 32 VBottom 2
WINDOW 3 32 32 VTop 2
SYMATTR InstName C4
SYMATTR Value .1µ
SYMBOL res -1344 -704 R90
WINDOW 0 0 56 VBottom 2
WINDOW 3 32 56 VTop 2
SYMATTR InstName R6
SYMATTR Value .9
SYMBOL res -976 -976 R0
SYMATTR InstName R5
SYMATTR Value 4.7K
SYMBOL potentiometer_standard -752 -144 R0
WINDOW 0 -44 41 Left 2
WINDOW 3 -201 26 Invisible 2
SYMATTR InstName Gain
SYMATTR Value Rtot=10K wiper=1-{.1}
SYMATTR SpiceModel pot_lin
SYMBOL pnp -912 -784 M180
SYMATTR InstName Q2
SYMATTR Value BC557B
SYMBOL res -272 -960 R0
SYMATTR InstName R8
SYMATTR Value 4.7K
SYMBOL res -272 -400 R0
SYMATTR InstName R11
SYMATTR Value 330
SYMBOL cap -128 -832 R90
WINDOW 0 0 32 VBottom 2
WINDOW 3 32 32 VTop 2
SYMATTR InstName C5
SYMATTR Value 47µ
SYMBOL cap -160 -368 R0
SYMATTR InstName C1
SYMATTR Value 47µ
SYMBOL npn -1024 -736 R0
SYMATTR InstName Q1
SYMATTR Value BC547B
SYMBOL npn -320 -704 R0
SYMATTR InstName Q3
SYMATTR Value mp37
SYMBOL res -624 -960 R0
SYMATTR InstName R9
SYMATTR Value 220K
SYMBOL res -624 -512 R0
SYMATTR InstName R7
SYMATTR Value 56K
SYMBOL cap -512 -784 R90
WINDOW 0 0 32 VBottom 2
WINDOW 3 32 32 VTop 2
SYMATTR InstName C6
SYMATTR Value 47µ
SYMBOL diode -288 -832 R90
WINDOW 0 0 32 VBottom 2
WINDOW 3 32 32 VTop 2
SYMATTR InstName D1
SYMATTR Value 1N4148
SYMBOL diode -352 -720 R270
WINDOW 0 32 32 VTop 2
WINDOW 3 0 32 VBottom 2
SYMATTR InstName D2
SYMATTR Value 1N4148
SYMBOL res -624 -672 R90
WINDOW 0 0 56 VBottom 2
WINDOW 3 32 56 VTop 2
SYMATTR InstName R10
SYMATTR Value 1
SYMBOL res -400 -784 R90
WINDOW 0 0 56 VBottom 2
WINDOW 3 32 56 VTop 2
SYMATTR InstName R12
SYMATTR Value 100
TEXT -1432 -152 Left 2 !.lib mp39b.lib
TEXT -1224 -152 Left 2 !.lib mp37.lib
TEXT -1432 -96 Left 2 !.include potentiometer_standard.lib
TEXT -1440 -48 Left 2 ;.step lin param w 0 1 0.1
TEXT -1440 8 Left 2 !.tran 0 1 .99
