Version 4
SHEET 1 880 680
WIRE -1184 -1024 -1424 -1024
WIRE -848 -1024 -1184 -1024
WIRE -512 -1024 -848 -1024
WIRE -160 -1024 -512 -1024
WIRE -512 -976 -512 -1024
WIRE -160 -976 -160 -1024
WIRE -1424 -960 -1424 -1024
WIRE -256 -880 -272 -880
WIRE -160 -880 -160 -896
WIRE -160 -880 -192 -880
WIRE -1424 -864 -1424 -880
WIRE -160 -848 -160 -880
WIRE -96 -848 -160 -848
WIRE 0 -848 -32 -848
WIRE -512 -768 -512 -896
WIRE -432 -768 -512 -768
WIRE -272 -768 -272 -880
WIRE -272 -768 -368 -768
WIRE -848 -736 -848 -1024
WIRE -272 -736 -272 -768
WIRE -256 -736 -272 -736
WIRE -160 -736 -160 -848
WIRE -160 -736 -192 -736
WIRE -1344 -688 -1424 -688
WIRE -1280 -688 -1344 -688
WIRE -1072 -688 -1216 -688
WIRE -912 -688 -1072 -688
WIRE -512 -672 -512 -768
WIRE -368 -672 -512 -672
WIRE -160 -672 -160 -736
WIRE -160 -672 -304 -672
WIRE 0 -672 0 -848
WIRE -1424 -624 -1424 -688
WIRE -1184 -608 -1184 -1024
WIRE -1072 -608 -1072 -688
WIRE -160 -592 -160 -672
WIRE -160 -592 -304 -592
WIRE -848 -576 -848 -640
WIRE -800 -576 -848 -576
WIRE -672 -576 -736 -576
WIRE -512 -544 -512 -672
WIRE -368 -544 -512 -544
WIRE -160 -544 -160 -592
WIRE -224 -496 -304 -496
WIRE -160 -416 -160 -448
WIRE -1424 -336 -1424 -544
WIRE -672 -288 -672 -576
WIRE -160 -256 -160 -336
WIRE -160 -256 -288 -256
WIRE -608 -240 -624 -240
WIRE -512 -240 -512 -544
WIRE -512 -240 -544 -240
WIRE -160 -240 -160 -256
WIRE -288 -224 -288 -256
WIRE 0 -224 0 -592
WIRE -1184 -208 -1184 -528
WIRE -1072 -208 -1072 -528
WIRE -1072 -208 -1184 -208
WIRE -992 -208 -1072 -208
WIRE -848 -208 -848 -576
WIRE -848 -208 -928 -208
WIRE 96 -176 48 -176
WIRE -288 -128 -288 -160
WIRE -160 -128 -160 -160
WIRE -160 -128 -288 -128
WIRE -672 -112 -672 -208
WIRE -512 -112 -512 -240
WIRE -1184 -96 -1184 -208
WIRE -848 -96 -848 -208
WIRE -160 -96 -160 -128
WIRE -288 -80 -288 -128
WIRE -1184 16 -1184 -16
WIRE -1072 16 -1184 16
WIRE -848 16 -848 -16
WIRE -848 16 -1072 16
WIRE -672 16 -672 -32
WIRE -672 16 -848 16
WIRE -512 16 -512 -32
WIRE -512 16 -672 16
WIRE -288 16 -288 -16
WIRE -288 16 -512 16
WIRE -160 16 -160 -16
WIRE -160 16 -288 16
WIRE 0 16 0 -144
WIRE 0 16 -160 16
WIRE -1072 32 -1072 16
FLAG -1424 -336 0
FLAG -1424 -864 0
FLAG -1072 32 0
FLAG 96 -176 Out
IOPIN 96 -176 Out
FLAG -1344 -688 In
IOPIN -1344 -688 In
SYMBOL voltage -1424 -640 R0
WINDOW 39 -112 95 Left 2
WINDOW 3 -74 122 Left 2
WINDOW 0 -51 -9 Left 2
SYMATTR Value SINE(0 .5V 1000)
SYMATTR InstName V1
SYMATTR Value2 AC 1
SYMBOL voltage -1424 -976 R0
WINDOW 123 0 0 Left 2
WINDOW 39 24 -12 Left 2
SYMATTR InstName V2
SYMATTR Value 9V
SYMBOL res -1200 -112 R0
SYMATTR InstName R1
SYMATTR Value 100K
SYMBOL cap -736 -592 R90
WINDOW 0 0 32 VBottom 2
WINDOW 3 32 32 VTop 2
SYMATTR InstName C2
SYMATTR Value 22µ
SYMBOL res -864 -112 R0
SYMATTR InstName R2
SYMATTR Value 4.7K
SYMBOL cap -928 -224 R90
WINDOW 0 0 32 VBottom 2
WINDOW 3 32 32 VTop 2
SYMATTR InstName C3
SYMATTR Value 47µ
SYMBOL res -1088 -624 R0
SYMATTR InstName R3
SYMATTR Value 47K
SYMBOL res -1200 -624 R0
SYMATTR InstName R4
SYMATTR Value 100K
SYMBOL cap -1216 -704 R90
WINDOW 0 0 32 VBottom 2
WINDOW 3 32 32 VTop 2
SYMATTR InstName C4
SYMATTR Value .1µ
SYMBOL potentiometer_standard -688 -304 R0
WINDOW 0 -44 41 Left 2
WINDOW 3 -201 26 Invisible 2
SYMATTR InstName Gain
SYMATTR Value Rtot=10K wiper={w}
SYMATTR SpiceModel pot_lin
SYMBOL res -176 -992 R0
SYMATTR InstName R8
SYMATTR Value 4.7K
SYMBOL res -176 -112 R0
SYMATTR InstName R11
SYMATTR Value 330
SYMBOL cap -32 -864 R90
WINDOW 0 0 32 VBottom 2
WINDOW 3 32 32 VTop 2
SYMATTR InstName C5
SYMATTR Value 10µ
SYMBOL cap -304 -80 R0
SYMATTR InstName C1
SYMATTR Value 100µ
SYMBOL npn -912 -736 R0
SYMATTR InstName Q1
SYMATTR Value BC547B
SYMBOL npn -368 -592 R0
SYMATTR InstName Q3
SYMATTR Value BC547B
SYMBOL res -528 -992 R0
SYMATTR InstName R9
SYMATTR Value 330K
SYMBOL res -528 -128 R0
SYMATTR InstName R7
SYMATTR Value 68K
SYMBOL cap -368 -784 R90
WINDOW 0 0 32 VBottom 2
WINDOW 3 32 32 VTop 2
SYMATTR InstName C6
SYMATTR Value 22µ
SYMBOL LED -192 -896 R90
WINDOW 0 0 32 VBottom 2
WINDOW 3 -60 58 VTop 2
SYMATTR InstName D1
SYMATTR Value QTLP690C
SYMATTR Description Diode
SYMATTR Type diode
SYMBOL LED -256 -720 R270
WINDOW 0 32 32 VTop 2
WINDOW 3 0 32 VBottom 2
SYMATTR InstName D2
SYMATTR Value QTLP690C
SYMATTR Description Diode
SYMATTR Type diode
SYMBOL cap -544 -256 R90
WINDOW 0 0 32 VBottom 2
WINDOW 3 32 32 VTop 2
SYMATTR InstName C7
SYMATTR Value 22µ
SYMBOL res -16 -688 R0
SYMATTR InstName R10
SYMATTR Value 1K
SYMBOL cap -304 -688 R90
WINDOW 0 0 32 VBottom 2
WINDOW 3 32 32 VTop 2
SYMATTR InstName C8
SYMATTR Value 470pF
SYMBOL res -688 -128 R0
SYMATTR InstName R13
SYMATTR Value 150
SYMBOL potentiometer_standard -16 -240 R0
WINDOW 0 -44 41 Left 2
WINDOW 3 -201 26 Invisible 2
SYMATTR InstName Volume
SYMATTR Value Rtot=10K wiper=1
SYMATTR SpiceModel pot_lin
SYMBOL res -176 -256 R0
SYMATTR InstName R12
SYMATTR Value 33
SYMBOL cap -304 -224 R0
SYMATTR InstName C9
SYMATTR Value 22µ
SYMBOL npn -224 -544 R0
SYMATTR InstName Q2
SYMATTR Value BC547B
SYMBOL res -176 -432 R0
SYMATTR InstName R5
SYMATTR Value 150
TEXT -1344 112 Left 2 !.include potentiometer_standard.lib
TEXT -1352 160 Left 2 !.step lin param w 0 1 0.1
TEXT -1352 216 Left 2 !.tran 0 1 .99
TEXT -976 160 Left 2 ;.param w  0.75
