Version 4
SHEET 1 880 680
WIRE -1184 -992 -1424 -992
WIRE -960 -992 -1184 -992
WIRE -512 -992 -960 -992
WIRE -160 -992 -512 -992
WIRE -960 -960 -960 -992
WIRE -512 -944 -512 -992
WIRE -160 -944 -160 -992
WIRE -1424 -928 -1424 -992
WIRE -1424 -832 -1424 -848
WIRE -256 -816 -272 -816
WIRE -160 -816 -160 -864
WIRE -160 -816 -192 -816
WIRE -96 -816 -160 -816
WIRE 0 -816 -32 -816
WIRE 48 -816 0 -816
WIRE -512 -768 -512 -864
WIRE -480 -768 -512 -768
WIRE -400 -768 -416 -768
WIRE -272 -768 -272 -816
WIRE -272 -768 -320 -768
WIRE -960 -736 -960 -880
WIRE -272 -736 -272 -768
WIRE -256 -736 -272 -736
WIRE -160 -736 -160 -816
WIRE -160 -736 -192 -736
WIRE -1392 -688 -1424 -688
WIRE -1280 -688 -1312 -688
WIRE -1072 -688 -1216 -688
WIRE -1024 -688 -1072 -688
WIRE -512 -672 -512 -768
WIRE -368 -672 -512 -672
WIRE -160 -672 -160 -736
WIRE -160 -672 -304 -672
WIRE 0 -640 0 -816
WIRE -1424 -624 -1424 -688
WIRE -960 -624 -960 -640
WIRE -848 -624 -960 -624
WIRE -160 -624 -160 -672
WIRE -1184 -608 -1184 -992
WIRE -1072 -608 -1072 -688
WIRE -848 -576 -848 -624
WIRE -800 -576 -848 -576
WIRE -672 -576 -736 -576
WIRE -576 -576 -608 -576
WIRE -512 -576 -512 -672
WIRE -224 -576 -512 -576
WIRE 0 -544 0 -560
WIRE -672 -528 -672 -576
WIRE -512 -496 -512 -576
WIRE -608 -480 -608 -576
WIRE -608 -480 -624 -480
WIRE -1184 -448 -1184 -528
WIRE -1072 -448 -1072 -528
WIRE -1072 -448 -1184 -448
WIRE -992 -448 -1072 -448
WIRE -848 -448 -848 -576
WIRE -848 -448 -928 -448
WIRE -1424 -416 -1424 -544
WIRE -160 -416 -160 -528
WIRE -160 -416 -288 -416
WIRE -1184 -384 -1184 -448
WIRE -848 -384 -848 -448
WIRE -160 -384 -160 -416
WIRE -288 -368 -288 -416
WIRE -1184 -272 -1184 -304
WIRE -1072 -272 -1184 -272
WIRE -848 -272 -848 -304
WIRE -848 -272 -1072 -272
WIRE -672 -272 -672 -448
WIRE -672 -272 -848 -272
WIRE -512 -272 -512 -416
WIRE -512 -272 -672 -272
WIRE -288 -272 -288 -304
WIRE -288 -272 -512 -272
WIRE -160 -272 -160 -304
WIRE -160 -272 -288 -272
WIRE -1072 -256 -1072 -272
FLAG -1424 -416 0
FLAG -1424 -832 0
FLAG -1072 -256 0
FLAG 48 -816 Out2
IOPIN 48 -816 Out
FLAG 0 -544 0
SYMBOL voltage -1424 -640 R0
WINDOW 39 -112 95 Left 2
WINDOW 3 -74 122 Left 2
WINDOW 0 -51 -9 Left 2
SYMATTR Value SINE(0 .1V 1000)
SYMATTR InstName V1
SYMATTR Value2 AC 1
SYMBOL voltage -1424 -944 R0
WINDOW 123 0 0 Left 2
WINDOW 39 24 -12 Left 2
SYMATTR InstName V2
SYMATTR Value 9V
SYMBOL res -1200 -400 R0
SYMATTR InstName R1
SYMATTR Value 100K
SYMBOL cap -736 -592 R90
WINDOW 0 0 32 VBottom 2
WINDOW 3 32 32 VTop 2
SYMATTR InstName C2
SYMATTR Value 22µ
SYMBOL res -864 -400 R0
SYMATTR InstName R2
SYMATTR Value 4.7K
SYMBOL cap -928 -464 R90
WINDOW 0 0 32 VBottom 2
WINDOW 3 32 32 VTop 2
SYMATTR InstName C3
SYMATTR Value 47µ
SYMBOL res -1088 -624 R0
SYMATTR InstName R3
SYMATTR Value 47K
SYMBOL res -1200 -624 R0
SYMATTR InstName R4
SYMATTR Value 100K
SYMBOL cap -1216 -704 R90
WINDOW 0 0 32 VBottom 2
WINDOW 3 32 32 VTop 2
SYMATTR InstName C4
SYMATTR Value .1µ
SYMBOL res -1296 -704 R90
WINDOW 0 0 56 VBottom 2
WINDOW 3 32 56 VTop 2
SYMATTR InstName R6
SYMATTR Value .9
SYMBOL res -976 -976 R0
SYMATTR InstName R5
SYMATTR Value 4.7K
SYMBOL potentiometer_standard -688 -544 R0
WINDOW 0 -44 41 Left 2
WINDOW 3 -201 26 Invisible 2
SYMATTR InstName Gain
SYMATTR Value Rtot=10K wiper=.1
SYMATTR SpiceModel pot_lin
SYMBOL res -176 -960 R0
SYMATTR InstName R8
SYMATTR Value 4.7K
SYMBOL res -176 -400 R0
SYMATTR InstName R11
SYMATTR Value 330
SYMBOL cap -32 -832 R90
WINDOW 0 0 32 VBottom 2
WINDOW 3 32 32 VTop 2
SYMATTR InstName C5
SYMATTR Value 47µ
SYMBOL cap -304 -368 R0
SYMATTR InstName C1
SYMATTR Value 47µ
SYMBOL npn -1024 -736 R0
SYMATTR InstName Q1
SYMATTR Value BC547B
SYMBOL npn -224 -624 R0
SYMATTR InstName Q3
SYMATTR Value mp37
SYMBOL res -528 -960 R0
SYMATTR InstName R9
SYMATTR Value 220K
SYMBOL res -528 -512 R0
SYMATTR InstName R7
SYMATTR Value 56K
SYMBOL cap -416 -784 R90
WINDOW 0 0 32 VBottom 2
WINDOW 3 32 32 VTop 2
SYMATTR InstName C6
SYMATTR Value 10µ
SYMBOL diode -192 -832 R90
WINDOW 0 0 32 VBottom 2
WINDOW 3 32 32 VTop 2
SYMATTR InstName D1
SYMATTR Value 1N4148
SYMBOL schottky -256 -720 R270
WINDOW 0 32 32 VTop 2
WINDOW 3 0 32 VBottom 2
SYMATTR InstName D2
SYMATTR Value RB705D
SYMATTR Description Diode
SYMATTR Type diode
SYMBOL res -304 -784 R90
WINDOW 0 0 56 VBottom 2
WINDOW 3 32 56 VTop 2
SYMATTR InstName R12
SYMATTR Value 1
SYMBOL cap -512 -592 R90
WINDOW 0 0 32 VBottom 2
WINDOW 3 32 32 VTop 2
SYMATTR InstName C7
SYMATTR Value 22µ
SYMBOL res -16 -656 R0
SYMATTR InstName R10
SYMATTR Value 100K
SYMBOL cap -304 -688 R90
WINDOW 0 0 32 VBottom 2
WINDOW 3 32 32 VTop 2
SYMATTR InstName C8
SYMATTR Value 1n
TEXT -1432 -152 Left 2 !.lib mp39b.lib
TEXT -1224 -152 Left 2 !.lib mp37.lib
TEXT -1432 -96 Left 2 !.include potentiometer_standard.lib
TEXT -1440 -48 Left 2 ;.step lin param w 0 1 0.1
TEXT -1440 8 Left 2 !.tran 0 1 .99
