.model mp39B pnp bf=40 br=4 eg=0.72 cje=30p cjc=90p tf=0.1u tr=1.u is=3u ikf=50m vaf=15 mje=0.5 mjc=0.5 rb=150 rbm=50 irb=0.1m ise=.3u ne=1.28 isc=0.6u nc=1.28 mfg=GERMANIUM_USSR