Version 4
SHEET 1 984 1092
WIRE -896 0 -1120 0
WIRE -48 0 -896 0
WIRE 176 0 -48 0
WIRE 448 0 176 0
WIRE 608 0 448 0
WIRE 784 0 608 0
WIRE 784 48 784 0
WIRE 448 64 448 0
WIRE 608 144 608 0
WIRE 784 144 784 128
WIRE -896 176 -896 0
WIRE 176 176 176 0
WIRE 448 192 448 144
WIRE 544 192 448 192
WIRE -1232 224 -1264 224
WIRE -1008 224 -1168 224
WIRE -960 224 -1008 224
WIRE 112 224 64 224
WIRE 448 224 448 192
WIRE -848 272 -896 272
WIRE 224 272 176 272
WIRE 272 272 224 272
WIRE 368 272 336 272
WIRE 384 272 368 272
WIRE -1120 304 -1120 0
WIRE -1008 304 -1008 224
WIRE -48 304 -48 0
WIRE 64 304 64 224
WIRE -1264 320 -1264 224
WIRE 368 384 368 272
WIRE 480 384 368 384
WIRE 608 384 608 240
WIRE 608 384 560 384
WIRE 640 384 608 384
WIRE 720 384 704 384
WIRE 448 448 448 320
WIRE 448 448 368 448
WIRE 608 528 608 384
WIRE -1120 464 -1120 384
WIRE -1008 464 -1008 384
WIRE -1008 464 -1120 464
WIRE -960 464 -1008 464
WIRE -848 464 -848 272
WIRE -848 464 -896 464
WIRE -48 464 -48 384
WIRE 64 464 64 384
WIRE 64 464 -48 464
WIRE 112 464 64 464
WIRE 224 464 224 272
WIRE 224 464 176 464
WIRE -1264 528 -1264 400
WIRE -1120 528 -1120 464
WIRE -848 528 -848 464
WIRE -48 528 -48 464
WIRE 224 528 224 464
WIRE 368 528 368 448
WIRE 448 528 448 448
WIRE -1120 640 -1120 608
WIRE -1008 640 -1120 640
WIRE -848 640 -848 608
WIRE -848 640 -1008 640
WIRE -48 640 -48 608
WIRE 64 640 -48 640
WIRE 224 640 224 608
WIRE 224 640 64 640
WIRE 368 640 368 592
WIRE 368 640 224 640
WIRE 448 640 448 608
WIRE 448 640 368 640
WIRE 608 640 608 608
WIRE 608 640 448 640
WIRE -1008 656 -1008 640
WIRE 64 656 64 640
FLAG 784 144 0
FLAG 64 656 0
FLAG 720 384 Out2
IOPIN 720 384 Out
FLAG -1264 528 0
FLAG -1008 656 0
SYMBOL voltage 784 144 R180
WINDOW 123 0 0 Left 2
WINDOW 39 24 -12 Left 2
SYMATTR InstName V2
SYMATTR Value 9V
SYMBOL pnp 112 176 R0
WINDOW 0 86 13 Left 2
WINDOW 3 82 53 Left 2
SYMATTR InstName Q1
SYMATTR Value mp39B
SYMBOL res -64 512 R0
SYMATTR InstName R1
SYMATTR Value 100K
SYMBOL res 208 512 R0
SYMATTR InstName R2
SYMATTR Value 4.7K
SYMBOL res 48 288 R0
SYMATTR InstName R3
SYMATTR Value 47K
SYMBOL res -64 288 R0
SYMATTR InstName R4
SYMATTR Value 100K
SYMBOL pnp 384 224 R0
SYMATTR InstName Q3
SYMATTR Value mp39B
SYMBOL pnp 544 144 R0
SYMATTR InstName Q4
SYMATTR Value mp39B
SYMBOL res 432 48 R0
SYMATTR InstName R8
SYMATTR Value 10K
SYMBOL res 576 368 R90
WINDOW 0 0 56 VBottom 2
WINDOW 3 32 56 VTop 2
SYMATTR InstName R9
SYMATTR Value 100K
SYMBOL res 592 512 R0
SYMATTR InstName R10
SYMATTR Value 1.5K
SYMBOL res 432 512 R0
SYMATTR InstName R11
SYMATTR Value 10K
SYMBOL voltage -1264 304 R0
WINDOW 39 -112 95 Left 2
WINDOW 3 -74 122 Left 2
WINDOW 0 -51 -9 Left 2
SYMATTR Value SINE(0 0.1V 1000)
SYMATTR InstName V3
SYMATTR Value2 AC 1
SYMBOL pnp -960 176 R0
WINDOW 0 86 13 Left 2
WINDOW 3 82 53 Left 2
SYMATTR InstName Q2
SYMATTR Value mp39B
SYMBOL res -1136 512 R0
SYMATTR InstName R14
SYMATTR Value 100K
SYMBOL res -864 512 R0
SYMATTR InstName R18
SYMATTR Value 4.7K
SYMBOL res -1024 288 R0
SYMATTR InstName R19
SYMATTR Value 47K
SYMBOL res -1136 288 R0
SYMATTR InstName R20
SYMATTR Value 100K
SYMBOL cap -1168 208 R90
WINDOW 0 0 32 VBottom 2
WINDOW 3 32 32 VTop 2
SYMATTR InstName C10
SYMATTR Value 1µ
SYMBOL polcap -896 448 R90
WINDOW 0 0 32 VBottom 2
WINDOW 3 32 32 VTop 2
SYMATTR InstName C9
SYMATTR Value 47µ
SYMBOL polcap 176 448 R90
WINDOW 0 0 32 VBottom 2
WINDOW 3 32 32 VTop 2
SYMATTR InstName C3
SYMATTR Value 47µ
SYMBOL polcap 272 288 R270
WINDOW 0 32 32 VTop 2
WINDOW 3 0 32 VBottom 2
SYMATTR InstName C13
SYMATTR Value 47µ
SYMBOL polcap 384 592 R180
WINDOW 0 24 57 Left 2
WINDOW 3 24 8 Left 2
SYMATTR InstName C2
SYMATTR Value 100µ
SYMBOL polcap 704 368 R90
WINDOW 0 0 32 VBottom 2
WINDOW 3 32 32 VTop 2
SYMATTR InstName C1
SYMATTR Value 47µ
TEXT -880 -232 Left 2 !.lib mp39b.lib
TEXT -672 -232 Left 2 !.lib mp37.lib
TEXT -864 -184 Left 2 !.include potentiometer_standard.lib
TEXT -872 -136 Left 2 !.step lin param w 0 1 0.1
TEXT -864 -80 Left 2 !.ac oct 500 20 30k
